  
       XFOIL         Version 6.99
  
 Calculated polar for: NACA 2312                                       
  
 1 1 Reynolds number fixed          Mach number fixed         
  
 xtrf =   0.100 (top)        0.100 (bottom)  
 Mach =   0.000     Re =     0.150 e 6     Ncrit =   9.000
  
   alpha    CL        CD       CDp       CM     Top_Xtr  Bot_Xtr
  ------ -------- --------- --------- -------- -------- --------
 -10.000  -0.4288   0.11379   0.10704  -0.0118   0.1000   0.1000
  -9.000  -0.4819   0.08736   0.08039  -0.0314   0.1000   0.1000
  -8.000  -0.5350   0.06093   0.05374  -0.0510   0.1000   0.1000
  -7.000  -0.5388   0.02974   0.01906  -0.0485   0.1000   0.0694
  -6.000  -0.4425   0.02415   0.01273  -0.0464   0.1000   0.0834
  -5.000  -0.3395   0.02005   0.00830  -0.0444   0.1000   0.1000
  -4.000  -0.2386   0.01751   0.00534  -0.0418   0.1000   0.1000
  -3.000  -0.1316   0.01694   0.00430  -0.0406   0.1000   0.1000
  -2.000  -0.0235   0.01669   0.00368  -0.0398   0.1000   0.1000
  -1.000   0.0849   0.01661   0.00335  -0.0390   0.1000   0.1000
   0.000   0.1933   0.01666   0.00325  -0.0382   0.1000   0.1000
   1.000   0.3014   0.01684   0.00336  -0.0374   0.1000   0.1000
   2.000   0.4089   0.01714   0.00368  -0.0366   0.1000   0.1000
   3.000   0.5155   0.01755   0.00420  -0.0357   0.1000   0.1000
   4.000   0.6209   0.01808   0.00493  -0.0346   0.1000   0.1000
   5.000   0.7247   0.01876   0.00589  -0.0334   0.1000   0.1000
   6.000   0.8263   0.01959   0.00710  -0.0319   0.1000   0.1000
   7.000   0.9251   0.02061   0.00858  -0.0300   0.1000   0.1000
   8.000   1.0193   0.02189   0.01042  -0.0275   0.1000   0.1000
   9.000   1.1065   0.02358   0.01279  -0.0241   0.1000   0.1000
  10.000   1.1633   0.02723   0.01709  -0.0162   0.1000   0.1000
  11.000   1.2017   0.03277   0.02284  -0.0073   0.0797   0.1000
  12.000   1.2509   0.03918   0.02943  -0.0016   0.0648   0.1000
  13.000   1.2951   0.04657   0.03730   0.0034   0.0556   0.1000
  14.000   1.3101   0.05534   0.04673   0.0081   0.0497   0.1000
  15.000   1.2785   0.07021   0.06257   0.0098   0.0474   0.1000
