  
       XFOIL         Version 6.99
  
 Calculated polar for: NACA 4412                                       
  
 1 1 Reynolds number fixed          Mach number fixed         
  
 xtrf =   0.050 (top)        0.050 (bottom)  
 Mach =   0.000     Re =     1.500 e 6     Ncrit =   9.000
  
   alpha    CL        CD       CDp       CM     Top_Xtr  Bot_Xtr
  ------ -------- --------- --------- -------- -------- --------
 -10.000  -0.6632   0.01559   0.00868  -0.0992   0.0500   0.0169
  -9.000  -0.5583   0.01400   0.00679  -0.0986   0.0500   0.0189
  -8.000  -0.4498   0.01300   0.00554  -0.0983   0.0500   0.0214
  -7.000  -0.3399   0.01217   0.00452  -0.0981   0.0500   0.0247
  -6.000  -0.2293   0.01139   0.00358  -0.0980   0.0500   0.0304
  -5.000  -0.1177   0.01088   0.00296  -0.0979   0.0500   0.0387
  -4.000  -0.0056   0.01050   0.00248  -0.0979   0.0500   0.0500
  -3.000   0.1072   0.01041   0.00221  -0.0979   0.0500   0.0500
  -2.000   0.2198   0.01043   0.00211  -0.0979   0.0500   0.0500
  -1.000   0.3320   0.01052   0.00211  -0.0979   0.0500   0.0500
   0.000   0.4436   0.01068   0.00220  -0.0978   0.0500   0.0500
   1.000   0.5546   0.01090   0.00239  -0.0976   0.0500   0.0500
   2.000   0.6646   0.01119   0.00266  -0.0974   0.0500   0.0500
   3.000   0.7735   0.01154   0.00303  -0.0969   0.0500   0.0500
   4.000   0.8809   0.01196   0.00349  -0.0963   0.0500   0.0500
   5.000   0.9867   0.01246   0.00405  -0.0955   0.0500   0.0500
   6.000   1.0903   0.01303   0.00471  -0.0943   0.0500   0.0500
   7.000   1.1912   0.01369   0.00549  -0.0928   0.0500   0.0500
   8.000   1.2884   0.01446   0.00641  -0.0907   0.0500   0.0500
   9.000   1.3805   0.01537   0.00750  -0.0878   0.0500   0.0500
  10.000   1.4533   0.01678   0.00902  -0.0815   0.0406   0.0500
  11.000   1.5170   0.01895   0.01126  -0.0746   0.0288   0.0500
  12.000   1.5747   0.02155   0.01401  -0.0678   0.0230   0.0500
  13.000   1.6222   0.02509   0.01774  -0.0611   0.0190   0.0500
  14.000   1.6578   0.03003   0.02290  -0.0548   0.0162   0.0500
  15.000   1.6850   0.03637   0.02950  -0.0498   0.0144   0.0500
