  
       XFOIL         Version 6.99
  
 Calculated polar for: NACA 2312                                       
  
 1 1 Reynolds number fixed          Mach number fixed         
  
 xtrf =   0.050 (top)        0.050 (bottom)  
 Mach =   0.000     Re =     1.500 e 6     Ncrit =   9.000
  
   alpha    CL        CD       CDp       CM     Top_Xtr  Bot_Xtr
  ------ -------- --------- --------- -------- -------- --------
 -10.000  -0.8887   0.01528   0.00807  -0.0452   0.0500   0.0179
  -9.000  -0.7854   0.01401   0.00657  -0.0440   0.0500   0.0201
  -8.000  -0.6794   0.01302   0.00540  -0.0431   0.0500   0.0232
  -7.000  -0.5722   0.01208   0.00431  -0.0424   0.0500   0.0278
  -6.000  -0.4636   0.01129   0.00342  -0.0417   0.0500   0.0352
  -5.000  -0.3533   0.01072   0.00277  -0.0413   0.0500   0.0466
  -4.000  -0.2415   0.01039   0.00229  -0.0411   0.0500   0.0500
  -3.000  -0.1288   0.01024   0.00201  -0.0410   0.0500   0.0500
  -2.000  -0.0160   0.01017   0.00184  -0.0410   0.0500   0.0500
  -1.000   0.0969   0.01017   0.00176  -0.0411   0.0500   0.0500
   0.000   0.2097   0.01023   0.00178  -0.0411   0.0500   0.0500
   1.000   0.3222   0.01036   0.00188  -0.0411   0.0500   0.0500
   2.000   0.4342   0.01054   0.00207  -0.0411   0.0500   0.0500
   3.000   0.5457   0.01079   0.00235  -0.0410   0.0500   0.0500
   4.000   0.6563   0.01110   0.00271  -0.0408   0.0500   0.0500
   5.000   0.7661   0.01147   0.00317  -0.0405   0.0500   0.0500
   6.000   0.8746   0.01192   0.00373  -0.0401   0.0500   0.0500
   7.000   0.9816   0.01246   0.00440  -0.0395   0.0500   0.0500
   8.000   1.0867   0.01309   0.00520  -0.0387   0.0500   0.0500
   9.000   1.1886   0.01391   0.00621  -0.0373   0.0475   0.0500
  10.000   1.2817   0.01532   0.00767  -0.0348   0.0329   0.0500
  11.000   1.3682   0.01697   0.00941  -0.0315   0.0247   0.0500
  12.000   1.4464   0.01878   0.01139  -0.0269   0.0204   0.0500
  13.000   1.5025   0.02112   0.01391  -0.0193   0.0173   0.0500
  14.000   1.5550   0.02408   0.01711  -0.0129   0.0155   0.0500
  15.000   1.6075   0.02704   0.02031  -0.0065   0.0137   0.0500

