  
       XFOIL         Version 6.99
  
 Calculated polar for: NACA 2312                                       
  
 1 1 Reynolds number fixed          Mach number fixed         
  
 xtrf =   1.000 (top)        1.000 (bottom)  
 Mach =   0.000     Re =     1.500 e 6     Ncrit =   5.000
  
   alpha    CL        CD       CDp       CM     Top_Xtr  Bot_Xtr
  ------ -------- --------- --------- -------- -------- --------
 -10.000  -0.8761   0.01263   0.00746  -0.0477   0.9848   0.0149
  -9.000  -0.7630   0.01135   0.00608  -0.0485   0.9682   0.0170
  -8.000  -0.6563   0.01033   0.00496  -0.0475   0.9396   0.0195
  -7.000  -0.5507   0.00949   0.00397  -0.0461   0.8938   0.0234
  -6.000  -0.4441   0.00890   0.00313  -0.0448   0.8173   0.0291
  -5.000  -0.3344   0.00843   0.00248  -0.0441   0.7562   0.0375
  -4.000  -0.2239   0.00807   0.00197  -0.0437   0.6904   0.0518
  -3.000  -0.1128   0.00780   0.00158  -0.0434   0.6207   0.0767
  -2.000  -0.0015   0.00763   0.00132  -0.0432   0.5494   0.1186
  -1.000   0.1100   0.00749   0.00118  -0.0431   0.4834   0.1868
   0.000   0.2207   0.00719   0.00112  -0.0429   0.4284   0.3281
   1.000   0.3303   0.00673   0.00118  -0.0427   0.3855   0.5561
   2.000   0.4404   0.00653   0.00137  -0.0423   0.3531   0.7278
   3.000   0.5457   0.00639   0.00168  -0.0405   0.3248   0.9076
   4.000   0.6554   0.00679   0.00204  -0.0397   0.2861   0.9697
   5.000   0.7772   0.00765   0.00258  -0.0423   0.2154   0.9922
   6.000   0.8951   0.00890   0.00341  -0.0444   0.1340   1.0000
   7.000   0.9882   0.01019   0.00439  -0.0412   0.0774   1.0000
   8.000   1.0854   0.01143   0.00546  -0.0389   0.0481   1.0000
   9.000   1.1823   0.01269   0.00665  -0.0368   0.0331   1.0000
  10.000   1.2761   0.01409   0.00802  -0.0344   0.0245   1.0000
  11.000   1.3653   0.01562   0.00959  -0.0314   0.0193   1.0000
  12.000   1.4464   0.01740   0.01145  -0.0274   0.0161   1.0000
  13.000   1.5091   0.01955   0.01372  -0.0207   0.0137   1.0000
  14.000   1.5611   0.02251   0.01684  -0.0141   0.0120   1.0000
  15.000   1.6028   0.02672   0.02127  -0.0085   0.0110   1.0000
