  
       XFOIL         Version 6.99
  
 Calculated polar for: NACA 4412                                       
  
 1 1 Reynolds number fixed          Mach number fixed         
  
 xtrf =   1.000 (top)        1.000 (bottom)  
 Mach =   0.000     Re =     1.500 e 6     Ncrit =   5.000
  
   alpha    CL        CD       CDp       CM     Top_Xtr  Bot_Xtr
  ------ -------- --------- --------- -------- -------- --------
 -10.000  -0.6398   0.01216   0.00732  -0.1040   0.9155   0.0142
  -9.000  -0.5337   0.01092   0.00583  -0.1032   0.8789   0.0159
  -8.000  -0.4248   0.00998   0.00465  -0.1028   0.8399   0.0182
  -7.000  -0.3140   0.00922   0.00370  -0.1026   0.8048   0.0210
  -6.000  -0.2027   0.00861   0.00291  -0.1024   0.7642   0.0257
  -5.000  -0.0909   0.00815   0.00230  -0.1023   0.7182   0.0327
  -4.000   0.0213   0.00783   0.00184  -0.1023   0.6695   0.0434
  -3.000   0.1336   0.00762   0.00151  -0.1023   0.6197   0.0609
  -2.000   0.2460   0.00749   0.00131  -0.1023   0.5717   0.0906
  -1.000   0.3586   0.00740   0.00122  -0.1024   0.5296   0.1379
   0.000   0.4712   0.00736   0.00124  -0.1026   0.4949   0.2053
   1.000   0.5836   0.00732   0.00136  -0.1028   0.4667   0.3005
   2.000   0.6947   0.00706   0.00159  -0.1030   0.4414   0.5306
   3.000   0.7991   0.00649   0.00197  -0.1015   0.4177   0.9012
   4.000   0.9147   0.00685   0.00230  -0.1023   0.3826   1.0000
   5.000   1.0178   0.00778   0.00288  -0.1010   0.3102   1.0000
   6.000   1.1141   0.00921   0.00382  -0.0986   0.2145   1.0000
   7.000   1.2040   0.01100   0.00510  -0.0953   0.1211   1.0000
   8.000   1.2912   0.01275   0.00653  -0.0915   0.0643   1.0000
   9.000   1.3756   0.01435   0.00800  -0.0874   0.0398   1.0000
  10.000   1.4484   0.01602   0.00965  -0.0813   0.0280   1.0000
  11.000   1.5146   0.01804   0.01171  -0.0748   0.0214   1.0000
  12.000   1.5735   0.02065   0.01440  -0.0683   0.0173   1.0000
  13.000   1.6245   0.02406   0.01794  -0.0620   0.0145   1.0000
  14.000   1.6661   0.02860   0.02266  -0.0562   0.0126   1.0000
  15.000   1.6941   0.03490   0.02915  -0.0511   0.0110   1.0000
