  
       XFOIL         Version 6.99
  
 Calculated polar for: NACA 4412                                       
  
 1 1 Reynolds number fixed          Mach number fixed         
  
 xtrf =   1.000 (top)        1.000 (bottom)  
 Mach =   0.000     Re =     0.150 e 6     Ncrit =   9.000
  
   alpha    CL        CD       CDp       CM     Top_Xtr  Bot_Xtr
  ------ -------- --------- --------- -------- -------- --------
 -10.000  -0.2621   0.10861   0.10477  -0.0368   1.0000   0.0815
  -9.000  -0.3242   0.09824   0.09467  -0.0354   1.0000   0.0862
  -8.000  -0.3265   0.09034   0.08691  -0.0273   0.9992   0.0945
  -7.000  -0.3004   0.07019   0.06677  -0.0437   0.9786   0.1055
  -6.000  -0.3309   0.05912   0.05515  -0.0665   0.9660   0.1165
  -5.000  -0.2024   0.02519   0.01760  -0.0898   0.9443   0.0806
  -4.000  -0.0563   0.02107   0.01292  -0.0968   0.9209   0.1072
  -3.000   0.0966   0.01809   0.00996  -0.1044   0.8992   0.1633
  -2.000   0.2282   0.01586   0.00814  -0.1072   0.8697   0.2788
  -1.000   0.3349   0.01284   0.00707  -0.1039   0.8346   0.7765
   0.000   0.4800   0.01221   0.00607  -0.1083   0.7915   1.0000
   1.000   0.5872   0.01239   0.00572  -0.1064   0.7424   1.0000
   2.000   0.6937   0.01294   0.00586  -0.1047   0.6953   1.0000
   3.000   0.8009   0.01372   0.00631  -0.1033   0.6535   1.0000
   4.000   0.9047   0.01473   0.00723  -0.1017   0.6138   1.0000
   5.000   1.0086   0.01580   0.00827  -0.1001   0.5763   1.0000
   6.000   1.1106   0.01692   0.00941  -0.0981   0.5369   1.0000
   7.000   1.2041   0.01783   0.01042  -0.0944   0.4869   1.0000
   8.000   1.2878   0.01876   0.01151  -0.0891   0.4289   1.0000
   9.000   1.3536   0.02004   0.01297  -0.0810   0.3520   1.0000
  10.000   1.3731   0.02354   0.01607  -0.0669   0.2289   1.0000
  11.000   1.3522   0.03157   0.02339  -0.0523   0.1244   1.0000
  12.000   1.3467   0.04071   0.03243  -0.0437   0.0885   1.0000
  13.000   1.3619   0.04926   0.04117  -0.0379   0.0700   1.0000
  14.000   1.3915   0.05713   0.04918  -0.0332   0.0582   1.0000
  15.000   1.4208   0.06589   0.05840  -0.0294   0.0502   1.0000
