  
       XFOIL         Version 6.99
  
 Calculated polar for: NACA 4412                                       
  
 1 1 Reynolds number fixed          Mach number fixed         
  
 xtrf =   0.250 (top)        0.250 (bottom)  
 Mach =   0.000     Re =     1.500 e 6     Ncrit =   9.000
  
   alpha    CL        CD       CDp       CM     Top_Xtr  Bot_Xtr
  ------ -------- --------- --------- -------- -------- --------
 -10.000  -0.6620   0.01539   0.00867  -0.0994   0.2500   0.0169
  -9.000  -0.5567   0.01375   0.00676  -0.0989   0.2500   0.0189
  -8.000  -0.4478   0.01267   0.00548  -0.0987   0.2500   0.0214
  -7.000  -0.3372   0.01181   0.00446  -0.0986   0.2500   0.0247
  -6.000  -0.2260   0.01094   0.00348  -0.0985   0.2500   0.0306
  -5.000  -0.1135   0.01035   0.00283  -0.0986   0.2500   0.0389
  -4.000  -0.0005   0.00987   0.00232  -0.0987   0.2500   0.0531
  -3.000   0.1128   0.00948   0.00198  -0.0989   0.2500   0.0788
  -2.000   0.2262   0.00917   0.00178  -0.0992   0.2500   0.1243
  -1.000   0.3396   0.00892   0.00171  -0.0995   0.2500   0.1954
   0.000   0.4532   0.00884   0.00173  -0.0998   0.2500   0.2500
   1.000   0.5669   0.00898   0.00182  -0.1000   0.2500   0.2500
   2.000   0.6800   0.00915   0.00199  -0.1002   0.2500   0.2500
   3.000   0.7923   0.00936   0.00223  -0.1003   0.2500   0.2500
   4.000   0.9038   0.00959   0.00254  -0.1002   0.2500   0.2500
   5.000   1.0142   0.00986   0.00293  -0.1001   0.2500   0.2500
   6.000   1.1234   0.01017   0.00339  -0.0998   0.2500   0.2500
   7.000   1.2299   0.01061   0.00399  -0.0991   0.2437   0.2500
   8.000   1.3118   0.01273   0.00555  -0.0945   0.1324   0.2500
   9.000   1.3831   0.01471   0.00733  -0.0881   0.0865   0.2500
  10.000   1.4544   0.01669   0.00910  -0.0817   0.0406   0.2500
  11.000   1.5179   0.01887   0.01132  -0.0748   0.0288   0.2500
  12.000   1.5755   0.02148   0.01407  -0.0680   0.0230   0.2500
  13.000   1.6230   0.02503   0.01779  -0.0612   0.0190   0.2500
  14.000   1.6585   0.02998   0.02295  -0.0549   0.0162   0.2500
  15.000   1.6856   0.03634   0.02954  -0.0499   0.0144   0.2500
