  
       XFOIL         Version 6.99
  
 Calculated polar for: NACA 2312                                       
  
 1 1 Reynolds number fixed          Mach number fixed         
  
 xtrf =   0.250 (top)        0.250 (bottom)  
 Mach =   0.000     Re =     1.500 e 6     Ncrit =   9.000
  
   alpha    CL        CD       CDp       CM     Top_Xtr  Bot_Xtr
  ------ -------- --------- --------- -------- -------- --------
 -10.000  -0.8881   0.01510   0.00809  -0.0452   0.2500   0.0179
  -9.000  -0.7846   0.01379   0.00657  -0.0441   0.2500   0.0202
  -8.000  -0.6782   0.01275   0.00539  -0.0433   0.2500   0.0232
  -7.000  -0.5707   0.01174   0.00427  -0.0426   0.2500   0.0279
  -6.000  -0.4615   0.01089   0.00337  -0.0420   0.2500   0.0353
  -5.000  -0.3507   0.01024   0.00268  -0.0417   0.2500   0.0469
  -4.000  -0.2390   0.00968   0.00216  -0.0415   0.2500   0.0682
  -3.000  -0.1268   0.00919   0.00178  -0.0415   0.2500   0.1070
  -2.000  -0.0144   0.00870   0.00152  -0.0415   0.2500   0.1800
  -1.000   0.0990   0.00839   0.00137  -0.0416   0.2500   0.2500
   0.000   0.2140   0.00843   0.00134  -0.0419   0.2500   0.2500
   1.000   0.3288   0.00850   0.00139  -0.0422   0.2500   0.2500
   2.000   0.4434   0.00860   0.00150  -0.0425   0.2500   0.2500
   3.000   0.5575   0.00874   0.00169  -0.0428   0.2500   0.2500
   4.000   0.6711   0.00890   0.00195  -0.0430   0.2500   0.2500
   5.000   0.7841   0.00910   0.00229  -0.0432   0.2500   0.2500
   6.000   0.8946   0.00950   0.00276  -0.0430   0.2328   0.2500
   7.000   0.9954   0.01081   0.00371  -0.0415   0.1462   0.2500
   8.000   1.0926   0.01234   0.00494  -0.0395   0.0797   0.2500
   9.000   1.1886   0.01378   0.00627  -0.0374   0.0475   0.2500
  10.000   1.2819   0.01522   0.00772  -0.0349   0.0329   0.2500
  11.000   1.3685   0.01688   0.00946  -0.0316   0.0247   0.2500
  12.000   1.4468   0.01871   0.01144  -0.0270   0.0204   0.2500
  13.000   1.5030   0.02107   0.01396  -0.0194   0.0173   0.2500
  14.000   1.5554   0.02404   0.01716  -0.0130   0.0155   0.2500
  15.000   1.5867   0.02906   0.02246  -0.0070   0.0139   0.2500
