  
       XFOIL         Version 6.99
  
 Calculated polar for: NACA 2312                                       
  
 1 1 Reynolds number fixed          Mach number fixed         
  
 xtrf =   1.000 (top)        1.000 (bottom)  
 Mach =   0.000     Re =     1.500 e 6     Ncrit =  12.000
  
   alpha    CL        CD       CDp       CM     Top_Xtr  Bot_Xtr
  ------ -------- --------- --------- -------- -------- --------
 -10.000  -0.9394   0.01523   0.01048  -0.0338   0.9988   0.0192
  -9.000  -0.8086   0.01292   0.00800  -0.0392   0.9944   0.0221
  -8.000  -0.6767   0.01124   0.00623  -0.0441   0.9878   0.0259
  -7.000  -0.5369   0.00987   0.00482  -0.0504   0.9819   0.0316
  -6.000  -0.4266   0.00870   0.00360  -0.0497   0.9570   0.0399
  -5.000  -0.3212   0.00792   0.00278  -0.0478   0.9245   0.0528
  -4.000  -0.2129   0.00722   0.00210  -0.0466   0.8826   0.0801
  -3.000  -0.1034   0.00669   0.00161  -0.0458   0.8295   0.1352
  -2.000   0.0060   0.00619   0.00127  -0.0451   0.7639   0.2426
  -1.000   0.1114   0.00522   0.00105  -0.0440   0.6890   0.5529
   0.000   0.2186   0.00493   0.00106  -0.0428   0.6074   0.7518
   1.000   0.3233   0.00497   0.00124  -0.0406   0.5256   0.8997
   2.000   0.4307   0.00542   0.00152  -0.0389   0.4533   0.9756
   3.000   0.5802   0.00604   0.00187  -0.0470   0.3968   0.9947
   4.000   0.7185   0.00649   0.00214  -0.0530   0.3562   1.0000
   5.000   0.8148   0.00692   0.00245  -0.0499   0.3213   1.0000
   6.000   0.9116   0.00751   0.00288  -0.0469   0.2740   1.0000
   7.000   1.0053   0.00864   0.00366  -0.0437   0.1944   1.0000
   8.000   1.0970   0.01036   0.00490  -0.0406   0.1062   1.0000
   9.000   1.1886   0.01215   0.00639  -0.0376   0.0559   1.0000
  10.000   1.2794   0.01385   0.00800  -0.0347   0.0368   1.0000
  11.000   1.3659   0.01563   0.00983  -0.0312   0.0280   1.0000
  12.000   1.4425   0.01771   0.01201  -0.0265   0.0229   1.0000
  13.000   1.4971   0.02031   0.01478  -0.0187   0.0197   1.0000
  14.000   1.5302   0.02468   0.01938  -0.0107   0.0172   1.0000
  15.000   1.5688   0.02961   0.02454  -0.0061   0.0159   1.0000
