  
       XFOIL         Version 6.99
  
 Calculated polar for: NACA 4412                                       
  
 1 1 Reynolds number fixed          Mach number fixed         
  
 xtrf =   1.000 (top)        1.000 (bottom)  
 Mach =   0.000     Re =     1.500 e 6     Ncrit =  12.000
  
   alpha    CL        CD       CDp       CM     Top_Xtr  Bot_Xtr
  ------ -------- --------- --------- -------- -------- --------
 -10.000  -0.6168   0.01434   0.01014  -0.1092   0.9771   0.0191
  -9.000  -0.5090   0.01275   0.00833  -0.1088   0.9594   0.0209
  -8.000  -0.4082   0.01089   0.00625  -0.1070   0.9365   0.0242
  -7.000  -0.3014   0.00954   0.00471  -0.1060   0.9125   0.0283
  -6.000  -0.1912   0.00861   0.00363  -0.1055   0.8848   0.0340
  -5.000  -0.0801   0.00773   0.00264  -0.1051   0.8527   0.0441
  -4.000   0.0319   0.00718   0.00199  -0.1049   0.8155   0.0611
  -3.000   0.1444   0.00675   0.00153  -0.1048   0.7729   0.0941
  -2.000   0.2564   0.00646   0.00127  -0.1047   0.7242   0.1546
  -1.000   0.3677   0.00629   0.00118  -0.1045   0.6704   0.2494
   0.000   0.4781   0.00598   0.00121  -0.1044   0.6156   0.4466
   1.000   0.5767   0.00509   0.00150  -0.1013   0.5652   0.9582
   2.000   0.7037   0.00551   0.00167  -0.1046   0.5219   1.0000
   3.000   0.8121   0.00594   0.00193  -0.1039   0.4893   1.0000
   4.000   0.9214   0.00637   0.00225  -0.1035   0.4599   1.0000
   5.000   1.0297   0.00688   0.00264  -0.1029   0.4249   1.0000
   6.000   1.1366   0.00747   0.00312  -0.1022   0.3818   1.0000
   7.000   1.2368   0.00851   0.00387  -0.1005   0.3114   1.0000
   8.000   1.3229   0.01048   0.00524  -0.0965   0.1972   1.0000
   9.000   1.3959   0.01306   0.00721  -0.0906   0.0919   1.0000
  10.000   1.4608   0.01537   0.00927  -0.0832   0.0476   1.0000
  11.000   1.5214   0.01768   0.01158  -0.0756   0.0330   1.0000
  12.000   1.5749   0.02061   0.01457  -0.0682   0.0257   1.0000
  13.000   1.6194   0.02448   0.01859  -0.0611   0.0212   1.0000
  14.000   1.6539   0.02968   0.02401  -0.0549   0.0184   1.0000
  15.000   1.6658   0.03767   0.03228  -0.0493   0.0163   1.0000
